
Note: No compatibility mode selected!


Circuit: "bjt voltage amplifier"

Doing analysis at TEMP = 27.000000 and TNOM = 27.000000

Using SPARSE 1.3 as Direct Linear Solver

Initial Transient Solution
--------------------------

Node                                   Voltage
----                                   -------
c2                                     4.29583
out                                          0
e2                                     1.81253
in                                           0
b1                                     1.76363
e1                                     1.15682
c1                                     2.49179
cc                                          12
1                                            0
v2#branch                          -0.00296935
v1#branch                                    0


No. of Data Rows : 44801
Fourier analysis for v_ac:
  No. Harmonics: 10, THD: 0.0956761 %, Gridsize: 200, Interpolation Degree: 1

Harmonic Frequency   Magnitude   Phase       Norm. Mag   Norm. Phase
-------- ---------   ---------   -----       ---------   -----------
 0       0           0.000171655 0           0           0          
 1       100000      1.93936     69.4189     1           0          
 2       200000      0.000319617 98.4118     0.000164805 28.9929    
 3       300000      0.00179569  -63.728     0.000925916 -133.15    
 4       400000      8.48382e-05 -9.8195     4.37454e-05 -79.238    
 5       500000      0.000320931 -101.64     0.000165483 -171.06    
 6       600000      3.59352e-05 -53.792     1.85294e-05 -123.21    
 7       700000      6.66689e-05 -141.37     3.43767e-05 -210.78    
 8       800000      1.09723e-05 -92.645     5.65768e-06 -162.06    
 9       900000      1.44773e-05 177.593     7.46498e-06 108.174    

Note: Simulation executed from .control section 
